gdb 2859833  1.0753589352445685  0.6177608086188475  1.2140273628859415  1.0043816269267305  -0.36462282102775423  1.0044247692373485  0.5325721708920303  1.0044130446999893  1.0044247692374058  1.3287351596135826  -1.6373879688134365  0.6127785490488273
 OpenBabel06181908493D

 25 24  0  0  1  0  0  0  0  0999 V2000
    1.4191    1.0679   -0.7249 C   0  0  0  0  0  0  0  0  0  0  0  0
    0.6420    0.2423   -1.7564 C   0  0  0  0  0  0  0  0  0  0  0  0
    0.8220   -1.2776   -1.6156 C   0  0  0  0  0  0  0  0  0  0  0  0
    0.2916   -1.9062   -0.3147 C   0  0  3  0  0  0  0  0  0  0  0  0
   -1.2319   -1.7866   -0.1849 C   0  0  0  0  0  0  0  0  0  0  0  0
    0.7052   -3.3968   -0.2197 C   0  0  0  0  0  0  0  0  0  0  0  0
    2.1463   -3.6154   -0.1458 C   0  0  0  0  0  0  0  0  0  0  0  0
    3.3381   -3.7788   -0.0712 C   0  0  0  0  0  0  0  0  0  0  0  0
    4.7774   -3.9899    0.0207 C   0  0  0  0  0  0  0  0  0  0  0  0
    1.0663    0.8880    0.2956 H   0  0  0  0  0  0  0  0  0  0  0  0
    1.3155    2.1399   -0.9213 H   0  0  0  0  0  0  0  0  0  0  0  0
    2.4876    0.8259   -0.7510 H   0  0  0  0  0  0  0  0  0  0  0  0
   -0.4223    0.5044   -1.7096 H   0  0  0  0  0  0  0  0  0  0  0  0
    0.9724    0.5301   -2.7622 H   0  0  0  0  0  0  0  0  0  0  0  0
    0.3278   -1.7736   -2.4634 H   0  0  0  0  0  0  0  0  0  0  0  0
    1.8894   -1.5150   -1.7028 H   0  0  0  0  0  0  0  0  0  0  0  0
    0.7543   -1.3941    0.5384 H   0  0  0  0  0  0  0  0  0  0  0  0
   -1.7370   -2.2925   -1.0170 H   0  0  0  0  0  0  0  0  0  0  0  0
   -1.5866   -2.2419    0.7460 H   0  0  0  0  0  0  0  0  0  0  0  0
   -1.5589   -0.7430   -0.1849 H   0  0  0  0  0  0  0  0  0  0  0  0
    0.2284   -3.8411    0.6643 H   0  0  0  0  0  0  0  0  0  0  0  0
    0.2931   -3.9356   -1.0855 H   0  0  0  0  0  0  0  0  0  0  0  0
    5.0253   -4.7089    0.8097 H   0  0  0  0  0  0  0  0  0  0  0  0
    5.1859   -4.3773   -0.9196 H   0  0  0  0  0  0  0  0  0  0  0  0
    5.3036   -3.0561    0.2490 H   0  0  0  0  0  0  0  0  0  0  0  0
  1  2  1  0  0  0  0
  1 10  1  0  0  0  0
  1 11  1  0  0  0  0
  1 12  1  0  0  0  0
  2  3  1  0  0  0  0
  2 13  1  0  0  0  0
  2 14  1  0  0  0  0
  3  4  1  0  0  0  0
  3 15  1  0  0  0  0
  3 16  1  0  0  0  0
  4  5  1  0  0  0  0
  4  6  1  0  0  0  0
  4 17  1  0  0  0  0
  5 18  1  0  0  0  0
  5 19  1  0  0  0  0
  5 20  1  0  0  0  0
  6  7  1  0  0  0  0
  6 21  1  0  0  0  0
  6 22  1  0  0  0  0
  7  8  3  0  0  0  0
  8  9  1  0  0  0  0
  9 23  1  0  0  0  0
  9 24  1  0  0  0  0
  9 25  1  0  0  0  0
M  END
$$$$
gdb 3148292  -0.1400155285683903  -0.6247851274605861  1.0899278661376404  0.7746475674826798  -0.5291405173370576  0.7746440348415428  -0.6871313347386252  0.774646801801412  0.7746440348415998  1.0664185955274026  -0.8968480189652339  -0.6389556630728517
 OpenBabel06181908493D

 21 21  0  0  1  0  0  0  0  0999 V2000
    0.8276    0.4718    0.3516 C   0  0  0  0  0  0  0  0  0  0  0  0
    0.3443   -0.9649    0.5752 C   0  0  0  0  0  0  0  0  0  0  0  0
    1.0052   -1.5951    1.7904 C   0  0  3  0  0  0  0  0  0  0  0  0
    0.6236   -0.9316    3.0261 O   0  0  0  0  0  0  0  0  0  0  0  0
    0.0799   -2.1452    3.5768 C   0  0  0  0  0  0  0  0  0  0  0  0
    0.5011   -2.9613    2.3386 C   0  0  3  0  0  0  0  0  0  0  0  0
   -0.6050   -3.7261    1.6010 C   0  0  0  0  0  0  0  0  0  0  0  0
   -0.1371   -4.3783    0.3826 C   0  0  0  0  0  0  0  0  0  0  0  0
    0.2774   -4.9122   -0.6120 C   0  0  0  0  0  0  0  0  0  0  0  0
    0.6307    1.0836    1.2366 H   0  0  0  0  0  0  0  0  0  0  0  0
    0.3204    0.9314   -0.5018 H   0  0  0  0  0  0  0  0  0  0  0  0
    1.9053    0.5003    0.1558 H   0  0  0  0  0  0  0  0  0  0  0  0
   -0.7438   -0.9672    0.7105 H   0  0  0  0  0  0  0  0  0  0  0  0
    0.5602   -1.5859   -0.3027 H   0  0  0  0  0  0  0  0  0  0  0  0
    2.0972   -1.5614    1.6676 H   0  0  0  0  0  0  0  0  0  0  0  0
   -1.0047   -2.0720    3.7418 H   0  0  0  0  0  0  0  0  0  0  0  0
    0.5608   -2.4208    4.5233 H   0  0  0  0  0  0  0  0  0  0  0  0
    1.3269   -3.6468    2.5423 H   0  0  0  0  0  0  0  0  0  0  0  0
   -1.0153   -4.4852    2.2809 H   0  0  0  0  0  0  0  0  0  0  0  0
   -1.4380   -3.0532    1.3639 H   0  0  0  0  0  0  0  0  0  0  0  0
    0.6304   -5.3878   -1.4942 H   0  0  0  0  0  0  0  0  0  0  0  0
  1  2  1  0  0  0  0
  1 10  1  0  0  0  0
  1 11  1  0  0  0  0
  1 12  1  0  0  0  0
  2  3  1  0  0  0  0
  2 13  1  0  0  0  0
  2 14  1  0  0  0  0
  3  4  1  0  0  0  0
  3  6  1  0  0  0  0
  3 15  1  0  0  0  0
  4  5  1  0  0  0  0
  5  6  1  0  0  0  0
  5 16  1  0  0  0  0
  5 17  1  0  0  0  0
  6  7  1  0  0  0  0
  6 18  1  0  0  0  0
  7  8  1  0  0  0  0
  7 19  1  0  0  0  0
  7 20  1  0  0  0  0
  8  9  3  0  0  0  0
  9 21  1  0  0  0  0
M  END
$$$$
gdb 3607838  0.5332474110318814  -0.6633251432420042  1.3311344092858  0.766425804038289  0.03707250997863715  0.7664071376887249  -0.558919934058556  0.766413305049054  0.7664071376887812  1.7307563067173168  -0.9085514603641747  -1.0478445224377413
 OpenBabel06181908563D

 23 24  0  0  1  0  0  0  0  0999 V2000
    1.1241    1.6870   -0.1877 C   0  0  0  0  0  0  0  0  0  0  0  0
    0.1225    0.5640   -0.4829 C   0  0  0  0  0  0  0  0  0  0  0  0
    0.6817   -0.4937   -1.4094 C   0  0  3  0  0  0  0  0  0  0  0  0
    1.6030   -1.6248   -0.9511 C   0  0  3  0  0  0  0  0  0  0  0  0
    1.6496   -1.9860    0.5326 C   0  0  0  0  0  0  0  0  0  0  0  0
    0.3247   -2.7511    0.7383 C   0  0  0  0  0  0  0  0  0  0  0  0
   -0.5626   -2.3091   -0.2931 O   0  0  0  0  0  0  0  0  0  0  0  0
    0.2034   -1.9257   -1.4208 C   0  0  3  0  0  0  0  0  0  0  0  0
   -0.1596   -2.6605   -2.6829 C   0  0  0  0  0  0  0  0  0  0  0  0
    2.0258    1.2982    0.2975 H   0  0  0  0  0  0  0  0  0  0  0  0
    0.6877    2.4449    0.4708 H   0  0  0  0  0  0  0  0  0  0  0  0
    1.4398    2.1889   -1.1091 H   0  0  0  0  0  0  0  0  0  0  0  0
   -0.2164    0.1033    0.4497 H   0  0  0  0  0  0  0  0  0  0  0  0
   -0.7783    0.9902   -0.9434 H   0  0  0  0  0  0  0  0  0  0  0  0
    0.9428   -0.1098   -2.3955 H   0  0  0  0  0  0  0  0  0  0  0  0
    2.4620   -1.8651   -1.5685 H   0  0  0  0  0  0  0  0  0  0  0  0
    1.7078   -1.1044    1.1791 H   0  0  0  0  0  0  0  0  0  0  0  0
    2.5160   -2.6133    0.7603 H   0  0  0  0  0  0  0  0  0  0  0  0
   -0.1573   -2.5506    1.6999 H   0  0  0  0  0  0  0  0  0  0  0  0
    0.4848   -3.8370    0.6533 H   0  0  0  0  0  0  0  0  0  0  0  0
    0.4713   -2.3350   -3.5155 H   0  0  0  0  0  0  0  0  0  0  0  0
   -0.0343   -3.7415   -2.5571 H   0  0  0  0  0  0  0  0  0  0  0  0
   -1.2038   -2.4720   -2.9550 H   0  0  0  0  0  0  0  0  0  0  0  0
  1  2  1  0  0  0  0
  1 10  1  0  0  0  0
  1 11  1  0  0  0  0
  1 12  1  0  0  0  0
  2  3  1  0  0  0  0
  2 13  1  0  0  0  0
  2 14  1  0  0  0  0
  3  4  1  0  0  0  0
  3  8  1  0  0  0  0
  3 15  1  0  0  0  0
  4  5  1  0  0  0  0
  4  8  1  0  0  0  0
  4 16  1  0  0  0  0
  5  6  1  0  0  0  0
  5 17  1  0  0  0  0
  5 18  1  0  0  0  0
  6  7  1  0  0  0  0
  6 19  1  0  0  0  0
  6 20  1  0  0  0  0
  7  8  1  0  0  0  0
  8  9  1  0  0  0  0
  9 21  1  0  0  0  0
  9 22  1  0  0  0  0
  9 23  1  0  0  0  0
M  END
$$$$
gdb 340363  -0.22223555899597908  -0.7102906178033311  0.44535769688631704  0.6619232699137246  -0.7822037001483505  0.6618991570207594  0.19229336954821447  0.6619078926120852  0.6618991570208169  0.08096188012325695  0.9568976838327898  -0.5839496674784834
 OpenBabel06181908323D

 21 22  0  0  1  0  0  0  0  0999 V2000
    0.4915    0.3661    0.2310 C   0  0  0  0  0  0  0  0  0  0  0  0
    0.5473    0.8513   -1.1927 C   0  0  0  0  0  0  0  0  0  0  0  0
    1.2495    1.9470   -1.5418 C   0  0  0  0  0  0  0  0  0  0  0  0
    1.3224    2.5929   -2.9321 C   0  0  0  0  0  0  0  0  0  0  0  0
    0.1594    1.9593   -3.6551 C   0  0  3  0  0  0  0  0  0  0  0  0
   -0.1526    1.0995   -4.8597 C   0  0  0  0  0  0  0  0  0  0  0  0
    0.2979    0.4675   -3.5662 C   0  0  3  0  0  0  0  0  0  0  0  0
   -0.2587    0.0111   -2.2353 C   0  0  3  0  0  0  0  0  0  0  0  0
   -0.1110   -1.4321   -2.0025 C   0  0  0  0  0  0  0  0  0  0  0  0
    0.0171   -2.5699   -1.8388 N   0  0  0  0  0  0  0  0  0  0  0  0
   -0.5451    0.3212    0.5904 H   0  0  0  0  0  0  0  0  0  0  0  0
    1.0515    1.0263    0.8973 H   0  0  0  0  0  0  0  0  0  0  0  0
    0.8961   -0.6478    0.3268 H   0  0  0  0  0  0  0  0  0  0  0  0
    1.7892    2.4604   -0.7480 H   0  0  0  0  0  0  0  0  0  0  0  0
    2.2889    2.3850   -3.4100 H   0  0  0  0  0  0  0  0  0  0  0  0
    1.2474    3.6835   -2.8356 H   0  0  0  0  0  0  0  0  0  0  0  0
   -0.7760    2.2932   -3.2048 H   0  0  0  0  0  0  0  0  0  0  0  0
   -1.1946    1.1057   -5.1644 H   0  0  0  0  0  0  0  0  0  0  0  0
    0.5451    0.9826   -5.6834 H   0  0  0  0  0  0  0  0  0  0  0  0
    1.3385    0.1568   -3.6449 H   0  0  0  0  0  0  0  0  0  0  0  0
   -1.3281    0.2446   -2.1390 H   0  0  0  0  0  0  0  0  0  0  0  0
  1  2  1  0  0  0  0
  1 11  1  0  0  0  0
  1 12  1  0  0  0  0
  1 13  1  0  0  0  0
  2  3  2  0  0  0  0
  2  8  1  0  0  0  0
  3  4  1  0  0  0  0
  3 14  1  0  0  0  0
  4  5  1  0  0  0  0
  4 15  1  0  0  0  0
  4 16  1  0  0  0  0
  5  6  1  0  0  0  0
  5  7  1  0  0  0  0
  5 17  1  0  0  0  0
  6  7  1  0  0  0  0
  6 18  1  0  0  0  0
  6 19  1  0  0  0  0
  7  8  1  0  0  0  0
  7 20  1  0  0  0  0
  8  9  1  0  0  0  0
  8 21  1  0  0  0  0
  9 10  3  0  0  0  0
M  END
$$$$
gdb 9785597  -0.9718320488304888  0.19589128168173575  0.33624218256387023  -0.0677013466467987  -0.5339999564308807  -0.06769437520703918  -1.3036662662155871  -0.06769934833845268  -0.067694375206984  0.09657941897529103  1.0749371119991118  -0.7585819325447276
 OpenBabel06181908363D

 19 18  0  0  1  0  0  0  0  0999 V2000
    1.2109   -0.6262   -0.2399 C   0  0  0  0  0  0  0  0  0  0  0  0
    0.6118   -0.1534   -1.4984 N   0  3  0  0  0  0  0  0  0  0  0  0
    0.6922   -0.7755   -3.2229 H   0  0  0  0  0  0  0  0  0  0  0  0
   -0.3849   -0.0166   -1.3512 H   0  0  0  0  0  0  0  0  0  0  0  0
    1.1442    1.0952   -2.1001 C   0  0  3  0  0  0  0  0  0  0  0  0
    0.4283    2.3669   -1.6033 C   0  0  0  0  0  0  0  0  0  0  0  0
    0.5796    2.4475   -0.1991 O   0  0  0  0  0  0  0  0  0  0  0  0
    2.5901    1.2012   -1.9112 C   0  0  0  0  0  0  0  0  0  0  0  0
    3.7818    1.3131   -1.8125 C   0  0  0  0  0  0  0  0  0  0  0  0
    0.8980    1.0005   -3.6509 C   0  0  0  0  0  0  0  0  0  0  0  0
    0.7056   -0.2495   -4.0634 O   0  5  0  0  0  0  0  0  0  0  0  0
    0.8919    1.9654   -4.3678 O   0  0  0  0  0  0  0  0  0  0  0  0
    0.6814   -1.5348    0.0602 H   0  0  0  0  0  0  0  0  0  0  0  0
    1.1525    0.1119    0.5661 H   0  0  0  0  0  0  0  0  0  0  0  0
    2.2576   -0.8812   -0.4113 H   0  0  0  0  0  0  0  0  0  0  0  0
    0.8525    3.2292   -2.1274 H   0  0  0  0  0  0  0  0  0  0  0  0
   -0.6350    2.2939   -1.8880 H   0  0  0  0  0  0  0  0  0  0  0  0
    0.3591    3.3416    0.0786 H   0  0  0  0  0  0  0  0  0  0  0  0
    4.8359    1.4160   -1.7198 H   0  0  0  0  0  0  0  0  0  0  0  0
  1  2  1  0  0  0  0
  1 13  1  0  0  0  0
  1 14  1  0  0  0  0
  1 15  1  0  0  0  0
  2  3  1  0  0  0  0
  2  4  1  0  0  0  0
  2  5  1  0  0  0  0
  5  6  1  0  0  0  0
  5  8  1  0  0  0  0
  5 10  1  0  0  0  0
  6  7  1  0  0  0  0
  6 16  1  0  0  0  0
  6 17  1  0  0  0  0
  7 18  1  0  0  0  0
  8  9  3  0  0  0  0
  9 19  1  0  0  0  0
 10 11  1  0  0  0  0
 10 12  2  0  0  0  0
M  CHG  2   2   1  11  -1
M  END
$$$$
gdb 1741923  -0.6617822262068416  -0.5688551424098082  -0.23554427871939349  0.28431393637124647  -0.35902135790547895  0.28430477234296525  -0.26702528281592014  0.2843089542284935  0.2843047723430216  -0.5271968699681587  -0.05341803147085228  0.29327911184781663
 OpenBabel06181908213D

 20 20  0  0  1  0  0  0  0  0999 V2000
    1.0387    0.1952   -0.0903 C   0  0  0  0  0  0  0  0  0  0  0  0
    0.5047    1.5361    0.1066 C   0  0  0  0  0  0  0  0  0  0  0  0
    0.0717    2.6486    0.2628 C   0  0  0  0  0  0  0  0  0  0  0  0
   -0.4860    3.9799    0.4795 C   0  0  3  0  0  0  0  0  0  0  0  0
   -2.0097    3.9702    0.2667 C   0  0  0  0  0  0  0  0  0  0  0  0
   -0.1059    4.5754    1.8535 C   0  0  0  0  0  0  0  0  0  0  0  0
    0.0458    6.0649    1.5623 C   0  0  0  0  0  0  0  0  0  0  0  0
    0.0771    6.9675    2.3571 O   0  0  0  0  0  0  0  0  0  0  0  0
    0.1469    6.1954    0.0418 C   0  0  0  0  0  0  0  0  0  0  0  0
    0.1318    4.8830   -0.4802 O   0  0  0  0  0  0  0  0  0  0  0  0
    0.7009   -0.2313   -1.0410 H   0  0  0  0  0  0  0  0  0  0  0  0
    0.7153   -0.4789    0.7106 H   0  0  0  0  0  0  0  0  0  0  0  0
    2.1341    0.2020   -0.0971 H   0  0  0  0  0  0  0  0  0  0  0  0
   -2.2354    3.6795   -0.7614 H   0  0  0  0  0  0  0  0  0  0  0  0
   -2.4882    3.2602    0.9471 H   0  0  0  0  0  0  0  0  0  0  0  0
   -2.4335    4.9632    0.4518 H   0  0  0  0  0  0  0  0  0  0  0  0
   -0.8361    4.3902    2.6429 H   0  0  0  0  0  0  0  0  0  0  0  0
    0.8642    4.1893    2.1842 H   0  0  0  0  0  0  0  0  0  0  0  0
    1.0786    6.6931   -0.2493 H   0  0  0  0  0  0  0  0  0  0  0  0
   -0.6919    6.8073   -0.3263 H   0  0  0  0  0  0  0  0  0  0  0  0
  1  2  1  0  0  0  0
  1 11  1  0  0  0  0
  1 12  1  0  0  0  0
  1 13  1  0  0  0  0
  2  3  3  0  0  0  0
  3  4  1  0  0  0  0
  4  5  1  0  0  0  0
  4  6  1  0  0  0  0
  4 10  1  0  0  0  0
  5 14  1  0  0  0  0
  5 15  1  0  0  0  0
  5 16  1  0  0  0  0
  6  7  1  0  0  0  0
  6 17  1  0  0  0  0
  6 18  1  0  0  0  0
  7  8  2  0  0  0  0
  7  9  1  0  0  0  0
  9 10  1  0  0  0  0
  9 19  1  0  0  0  0
  9 20  1  0  0  0  0
M  END
$$$$
gdb 4534766  0.944833726172464  1.4496254173293182  0.3678988338407225  -0.23529175462983518  -0.7772292768803971  -0.23526998646398103  1.5342409080746262  -0.23527995260599624  -0.235269986463927  -0.015280553892013276  -0.3418972065983333  2.0291278245558826
 OpenBabel06181908053D

 26 26  0  0  1  0  0  0  0  0999 V2000
    1.2150   -0.4967    0.1040 C   0  0  0  0  0  0  0  0  0  0  0  0
    0.6533    0.8532    0.5332 C   0  0  3  0  0  0  0  0  0  0  0  0
   -0.5482    0.5585    1.2686 O   0  0  0  0  0  0  0  0  0  0  0  0
   -1.1410    1.6014    1.9930 C   0  0  0  0  0  0  0  0  0  0  0  0
   -1.6061    2.6838    1.2300 O   0  0  0  0  0  0  0  0  0  0  0  0
   -0.6797    3.6147    0.6825 C   0  0  0  0  0  0  0  0  0  0  0  0
    0.5443    3.9775    1.5373 C   0  0  3  0  0  0  0  0  0  0  0  0
    1.2215    5.2438    0.9305 C   0  0  0  0  0  0  0  0  0  0  0  0
    0.3934    6.4421    0.9858 C   0  0  0  0  0  0  0  0  0  0  0  0
   -0.2979    7.4239    1.0486 C   0  0  0  0  0  0  0  0  0  0  0  0
    1.6049    2.9175    1.7368 C   0  0  0  0  0  0  0  0  0  0  0  0
    1.6687    1.6463    1.3324 C   0  0  0  0  0  0  0  0  0  0  0  0
    0.4596   -1.0597   -0.4493 H   0  0  0  0  0  0  0  0  0  0  0  0
    1.5087   -1.0823    0.9810 H   0  0  0  0  0  0  0  0  0  0  0  0
    2.0920   -0.3609   -0.5365 H   0  0  0  0  0  0  0  0  0  0  0  0
    0.3721    1.4071   -0.3705 H   0  0  0  0  0  0  0  0  0  0  0  0
   -0.4673    1.9496    2.7876 H   0  0  0  0  0  0  0  0  0  0  0  0
   -2.0343    1.1602    2.4419 H   0  0  0  0  0  0  0  0  0  0  0  0
   -0.3464    3.2838   -0.3109 H   0  0  0  0  0  0  0  0  0  0  0  0
   -1.2629    4.5281    0.5332 H   0  0  0  0  0  0  0  0  0  0  0  0
    0.1817    4.2680    2.5343 H   0  0  0  0  0  0  0  0  0  0  0  0
    2.1603    5.4310    1.4657 H   0  0  0  0  0  0  0  0  0  0  0  0
    1.5044    5.0341   -0.1098 H   0  0  0  0  0  0  0  0  0  0  0  0
   -0.9035    8.2957    1.0993 H   0  0  0  0  0  0  0  0  0  0  0  0
    2.4452    3.2776    2.3326 H   0  0  0  0  0  0  0  0  0  0  0  0
    2.5434    1.0776    1.6442 H   0  0  0  0  0  0  0  0  0  0  0  0
  1  2  1  0  0  0  0
  1 13  1  0  0  0  0
  1 14  1  0  0  0  0
  1 15  1  0  0  0  0
  2  3  1  0  0  0  0
  2 12  1  0  0  0  0
  2 16  1  0  0  0  0
  3  4  1  0  0  0  0
  4  5  1  0  0  0  0
  4 17  1  0  0  0  0
  4 18  1  0  0  0  0
  5  6  1  0  0  0  0
  6  7  1  0  0  0  0
  6 19  1  0  0  0  0
  6 20  1  0  0  0  0
  7  8  1  0  0  0  0
  7 11  1  0  0  0  0
  7 21  1  0  0  0  0
  8  9  1  0  0  0  0
  8 22  1  0  0  0  0
  8 23  1  0  0  0  0
  9 10  3  0  0  0  0
 10 24  1  0  0  0  0
 11 12  2  0  0  0  0
 11 25  1  0  0  0  0
 12 26  1  0  0  0  0
M  END
$$$$
gdb 745397  0.47135381855455594  0.14955347654216977  1.0790519036139883  0.5206313393695579  -0.3314682160943127  0.5206210428825037  -0.9102239119503722  0.5206219401241036  0.5206210428825606  1.1763777752125304  0.5339571204229305  -0.7794941135417034
 OpenBabel06181909003D

 23 23  0  0  1  0  0  0  0  0999 V2000
    6.2729    2.6440    0.1519 C   0  0  0  0  0  0  0  0  0  0  0  0
    4.9501    3.2565    0.6262 C   0  0  0  0  0  0  0  0  0  0  0  0
    4.4094    4.2481   -0.4113 C   0  0  0  0  0  0  0  0  0  0  0  0
    3.9797    2.2038    0.8131 O   0  0  0  0  0  0  0  0  0  0  0  0
    5.0777    3.9523    1.9967 C   0  0  0  0  0  0  0  0  0  0  0  0
    5.6383    3.0983    3.1164 C   0  0  3  0  0  0  0  0  0  0  0  0
    5.2377    3.3752    4.5545 C   0  0  0  0  0  0  0  0  0  0  0  0
    4.7417    2.1379    3.8639 C   0  0  3  0  0  0  0  0  0  0  0  0
    3.3864    2.0813    3.5494 O   0  0  0  0  0  0  0  0  0  0  0  0
    6.1537    2.1927   -0.8406 H   0  0  0  0  0  0  0  0  0  0  0  0
    6.6105    1.8657    0.8400 H   0  0  0  0  0  0  0  0  0  0  0  0
    7.0561    3.4050    0.0744 H   0  0  0  0  0  0  0  0  0  0  0  0
    4.2467    3.7510   -1.3748 H   0  0  0  0  0  0  0  0  0  0  0  0
    3.4554    4.6665   -0.0783 H   0  0  0  0  0  0  0  0  0  0  0  0
    5.1114    5.0715   -0.5773 H   0  0  0  0  0  0  0  0  0  0  0  0
    3.9168    1.6956   -0.0029 H   0  0  0  0  0  0  0  0  0  0  0  0
    5.7018    4.8450    1.8659 H   0  0  0  0  0  0  0  0  0  0  0  0
    4.0799    4.3036    2.2786 H   0  0  0  0  0  0  0  0  0  0  0  0
    6.6659    2.7734    2.9753 H   0  0  0  0  0  0  0  0  0  0  0  0
    5.9873    3.2844    5.3332 H   0  0  0  0  0  0  0  0  0  0  0  0
    4.4987    4.1518    4.7216 H   0  0  0  0  0  0  0  0  0  0  0  0
    5.1824    1.1862    4.1659 H   0  0  0  0  0  0  0  0  0  0  0  0
    3.3361    1.9067    2.5959 H   0  0  0  0  0  0  0  0  0  0  0  0
  1  2  1  0  0  0  0
  1 10  1  0  0  0  0
  1 11  1  0  0  0  0
  1 12  1  0  0  0  0
  2  3  1  0  0  0  0
  2  4  1  0  0  0  0
  2  5  1  0  0  0  0
  3 13  1  0  0  0  0
  3 14  1  0  0  0  0
  3 15  1  0  0  0  0
  4 16  1  0  0  0  0
  5  6  1  0  0  0  0
  5 17  1  0  0  0  0
  5 18  1  0  0  0  0
  6  7  1  0  0  0  0
  6  8  1  0  0  0  0
  6 19  1  0  0  0  0
  7  8  1  0  0  0  0
  7 20  1  0  0  0  0
  7 21  1  0  0  0  0
  8  9  1  0  0  0  0
  8 22  1  0  0  0  0
  9 23  1  0  0  0  0
M  END
$$$$
gdb 459275  -1.8189597280643095  -1.304489110959582  -1.214368373463095  0.32496498999674633  -0.43603466940165997  0.32494482047072776  -0.46455355604034904  0.3249539782515174  0.3249448204707842  -1.8310626261631069  0.9199325837867331  -0.32891271236853015
 OpenBabel06181908243D

 16 16  0  0  0  0  0  0  0  0999 V2000
    0.9567    0.0549   -0.0451 C   0  0  0  0  0  0  0  0  0  0  0  0
    0.4649    0.0556   -1.4583 C   0  0  0  0  0  0  0  0  0  0  0  0
    0.2524   -1.1080   -2.2906 C   0  0  0  0  0  0  0  0  0  0  0  0
   -0.1988   -0.6944   -3.5045 C   0  0  0  0  0  0  0  0  0  0  0  0
   -0.2800    0.6977   -3.4708 N   0  0  0  0  0  0  0  0  0  0  0  0
    0.1313    1.1437   -2.2066 C   0  0  0  0  0  0  0  0  0  0  0  0
   -0.7042    1.4669   -4.5367 C   0  0  0  0  0  0  0  0  0  0  0  0
   -1.0518    1.0280   -5.6072 O   0  0  0  0  0  0  0  0  0  0  0  0
   -0.7066    2.9154   -4.2740 C   0  0  0  0  0  0  0  0  0  0  0  0
   -0.7310    4.0626   -4.1312 N   0  0  0  0  0  0  0  0  0  0  0  0
    0.2882   -0.5166    0.6087 H   0  0  0  0  0  0  0  0  0  0  0  0
    1.0258    1.0710    0.3514 H   0  0  0  0  0  0  0  0  0  0  0  0
    1.9490   -0.4041    0.0311 H   0  0  0  0  0  0  0  0  0  0  0  0
    0.4229   -2.1342   -1.9993 H   0  0  0  0  0  0  0  0  0  0  0  0
   -0.4763   -1.2216   -4.4013 H   0  0  0  0  0  0  0  0  0  0  0  0
    0.1418    2.1961   -1.9742 H   0  0  0  0  0  0  0  0  0  0  0  0
  1  2  1  0  0  0  0
  1 11  1  0  0  0  0
  1 12  1  0  0  0  0
  1 13  1  0  0  0  0
  2  3  1  0  0  0  0
  2  6  2  0  0  0  0
  3  4  2  0  0  0  0
  3 14  1  0  0  0  0
  4  5  1  0  0  0  0
  4 15  1  0  0  0  0
  5  6  1  0  0  0  0
  5  7  1  0  0  0  0
  6 16  1  0  0  0  0
  7  8  2  0  0  0  0
  7  9  1  0  0  0  0
  9 10  3  0  0  0  0
M  END
$$$$
gdb 1352260  0.0590857730153242  -0.534475157158253  0.25392574941497736  0.768428591875306  0.21548890164885673  0.7684130144767743  0.6260192219583309  0.7684198500272351  0.7684130144768317  0.46080282706061804  -1.4462489096628832  -0.053140783052943376
 OpenBabel06181908323D

 22 23  0  0  1  0  0  0  0  0999 V2000
   -9.8801    4.0588    2.6465 C   0  0  0  0  0  0  0  0  0  0  0  0
   -9.0466    3.2191    2.4317 C   0  0  0  0  0  0  0  0  0  0  0  0
   -8.0103    2.2307    2.1560 C   0  0  0  0  0  0  0  0  0  0  0  0
   -6.7561    2.8498    1.5293 C   0  0  3  0  0  0  0  0  0  0  0  0
   -5.5072    1.9105    1.3128 C   0  0  0  0  0  0  0  0  0  0  0  0
   -4.6886    3.0998    1.7535 C   0  0  0  0  0  0  0  0  0  0  0  0
   -3.7101    3.9303    1.4091 C   0  0  0  0  0  0  0  0  0  0  0  0
   -4.0246    5.3251    1.9470 C   0  0  0  0  0  0  0  0  0  0  0  0
   -5.5711    5.2807    2.1934 C   0  0  0  0  0  0  0  0  0  0  0  0
   -5.8523    3.7826    2.4158 C   0  0  3  0  0  0  0  0  0  0  0  0
  -10.6240    4.7920    2.8412 H   0  0  0  0  0  0  0  0  0  0  0  0
   -7.7337    1.7192    3.0882 H   0  0  0  0  0  0  0  0  0  0  0  0
   -8.4104    1.4545    1.4896 H   0  0  0  0  0  0  0  0  0  0  0  0
   -7.0123    3.3547    0.5932 H   0  0  0  0  0  0  0  0  0  0  0  0
   -5.5080    1.0867    2.0373 H   0  0  0  0  0  0  0  0  0  0  0  0
   -5.3303    1.5023    0.3146 H   0  0  0  0  0  0  0  0  0  0  0  0
   -2.8518    3.7157    0.7825 H   0  0  0  0  0  0  0  0  0  0  0  0
   -3.4771    5.5435    2.8753 H   0  0  0  0  0  0  0  0  0  0  0  0
   -3.7444    6.1102    1.2360 H   0  0  0  0  0  0  0  0  0  0  0  0
   -5.8866    5.9173    3.0246 H   0  0  0  0  0  0  0  0  0  0  0  0
   -6.0911    5.6320    1.2950 H   0  0  0  0  0  0  0  0  0  0  0  0
   -5.9798    3.5247    3.4761 H   0  0  0  0  0  0  0  0  0  0  0  0
  1  2  3  0  0  0  0
  1 11  1  0  0  0  0
  2  3  1  0  0  0  0
  3  4  1  0  0  0  0
  3 12  1  0  0  0  0
  3 13  1  0  0  0  0
  4  5  1  0  0  0  0
  4 10  1  0  0  0  0
  4 14  1  0  0  0  0
  5  6  1  0  0  0  0
  5 15  1  0  0  0  0
  5 16  1  0  0  0  0
  6  7  2  0  0  0  0
  6 10  1  0  0  0  0
  7  8  1  0  0  0  0
  7 17  1  0  0  0  0
  8  9  1  0  0  0  0
  8 18  1  0  0  0  0
  8 19  1  0  0  0  0
  9 10  1  0  0  0  0
  9 20  1  0  0  0  0
  9 21  1  0  0  0  0
 10 22  1  0  0  0  0
M  END
$$$$
